%chk=Acrolina_Din_1.chk
%nprocshared=10
#p td=(nstates=15) b3lyp scrf=(iefpcm,solvent=water) cc-pvdz

Acroleina in Water

0 1
 C                  1.17106900    1.15820400    1.05718200
 H                  0.40682300    1.91833400    0.92667600
 H                  2.17756600    1.48868600    1.28846100
 C                  0.86223200   -0.14229100    0.93266300
 H                  1.61073400   -0.91970200    1.05900000
 C                 -0.51678800   -0.57342300    0.61676700
 H                 -0.67573600   -1.66376200    0.53389300
 O                 -1.45841500    0.20133800    0.44879500
 O                 -3.64388200   -1.41282200   -0.04691900
 H                 -2.91080900   -0.76955500   -0.26791200
 H                 -4.40753800   -1.27755400   -0.67825500
 O                 -1.23392000    2.61940600   -1.54200300
 H                 -0.33867800    2.41066600   -1.93577300
 H                 -1.47584200    1.91656500   -0.87304400
 O                 -5.04665300   -0.10045400    1.40317500
 H                 -4.36345200   -0.64787500    0.91982600
 H                 -5.46207400   -0.65009700    2.12797700
 O                 -3.72799200   -3.79706100   -0.08945200
 H                 -4.62561700   -3.91633100    0.33492800
 H                 -3.47469200   -2.82992100   -0.06723700
 O                  2.18999800    0.52379800   -2.40077900
 H                  2.89485500    0.99843200   -2.92796000
 H                  2.46294300   -0.42797000   -2.26054200
 O                 -2.19699200   -5.25174900    1.51477600
 H                 -2.59966700   -4.58442400    0.88821600
 H                 -2.89746800   -5.57772100    2.14972800
 O                  0.83778100    2.39846400   -2.53255900
 H                  1.41385900    3.19801000   -2.70249800
 H                  1.41100700    1.58115000   -2.47365600
 O                  3.25584900   -1.72243800   -2.40476700
 H                  3.39796500   -2.41283900   -1.69540500
 H                  2.69437100   -2.10773400   -3.13711400
 O                  6.11878600   -0.30147300    0.29683600
 H                  5.30690700    0.16026400   -0.06049100
 H                  6.17609600   -1.22184400   -0.09003200
 O                 -1.89690200    4.77135500   -1.62762000
 H                 -1.15156200    5.38925800   -1.37716100
 H                 -1.60248800    3.82443800   -1.49832700
 O                  3.86502500   -3.98192600   -0.86252000
 H                  3.85722400   -4.59468000   -1.65278300
 H                  3.69089700   -4.50877000   -0.03055100
 O                  1.12364900    5.51206400    3.56112100
 H                  2.07544100    5.46475400    3.86432900
 H                  1.09369000    5.77744300    2.59741600
 O                  6.14628700   -0.43127800    2.79668400
 H                  5.99820700   -0.38953200    1.80854600
 H                  6.96429700    0.09297100    3.03352800
 O                 -6.20026600    0.89464300   -0.24375600
 H                 -5.99590000    1.86720900   -0.13239600
 H                 -5.80928500    0.38225500    0.52084800

